This is a HelloWord text

Today's weather is good
a

new line.

Today is Tuesday.
Add new line.
Git is a toll which controlls the change instead of file, it is good
Test git is contolling change instead of file



